# Example "data.mnc" file
# Lines beginning "#" are comments
 &MNC_01
 mnc_use_outdir=.TRUE.,
 mnc_outdir_str='/scratch/kramosmu/MITgcm/tracerexperiments/CNTDIFF_STEP_run67',
 mnc_outdir_num=.FALSE.,
 mnc_outdir_date=.FALSE.,
 monitor_mnc=.FALSE.,
 pickup_write_mnc=.FALSE.,
 pickup_read_mnc=.FALSE.,

 &
# Note: Some systems use & as the
# namelist terminator. Other systems
# use a / character (as shown here).
