# Model parameters
# Continuous equation parameters
 &PARM01
 viscAz=1.E-2,
 viscAh=1.E-2,
 viscC2Smag=2.2,
 useJamartWetPoints=.TRUE.,
 viscAhGridMax=1.0,
 implicitDiffusion=.TRUE.,
 implicitViscosity=.TRUE.,
 no_slip_sides=.TRUE.,
 no_slip_bottom=.TRUE.,
 ViscAhRemax=10,
 ViscAhGridMin=0.01,
 useStrainTensionVisc=.TRUE.,
 ivdc_kappa=10.,
 diffKhT=1.E-7,
 diffKzT=1.E-7,
 diffKhS=1.E-7,
 diffKzS=1.E-7,
 f0=9.66E-5,
 beta=0.E-11,
 tAlpha=2.E-4,
 sBeta =7.4E-4,
 gravity=9.81,
 rigidLid=.FALSE.,
 implicitFreeSurface=.TRUE.,
 readBinaryPrec=64,
 hFacMin=0.1,
 nonHydrostatic=.TRUE., 
 saltAdvScheme=33,
 tempAdvScheme=33,
 staggerTimeStep=.TRUE.,
 bottomDragQuadratic=0.002,
 vectorInvariantMomentum=.TRUE.,
 &
# Elliptic solver parameters
 &PARM02
 cg3dMaxIters=20,
 cg3dTargetResidual=1.E-8,
 &
# Time stepping parameters
 &PARM03
 nIter0=0,
 nTimeSteps=2160, 
 deltaT=40,
 pChkptFreq=86400.0,
# chkptFreq=21600.0,
 dumpFreq=86400.0,
# monitorFreq=43200.0,
 periodicExternalForcing=.TRUE.,
 externForcingPeriod=40,
 externForcingCycle=86400.0,
 &
# Gridding parameters
 &PARM04
 usingCartesianGrid=.TRUE.,
 ygOrigin=0.,
 delXfile='delx_360x360.box',
 delYfile='dely_360x360.box',
 delZ= 5.,5.,5.,5.,5.,5.,5.,5.,5.,5.,5.,5.,5.,5.,5.,5.,5.,5.,5.,5.,5.,5.,
 5.,5.,5.,5.,5.,5.,5.,5.,5.,5.,5.,5.,10.,10.,10.,10.,10.,10.,10.,10.,10.,
 20.,20.,20.,20.,20.,20.,20.,20.,20.,20.,20.,20.,20.,20.,20.,20.,20.,20.,
 20.,20.,20.,20.,20.,20.,20.,20.,20.,20.,20.,20.,20.,20.,20.,20.,20.,20.,
 20.,20.,20.,20.,20.,20.,20.,20.,20.,20.,20.
 &
 &PARM05
 bathyFile='topog_smooth_360x360.box',
 hydrogThetaFile='temperature_360x360x90_fall.box',
 hydrogSaltFile='salinity_360x360x90_fall.box'
 zonalWindFile='wind_downwelling_ramp_360x360.box',
 meridWindFile='',
 &
